Circuit: * C:\Users\gioel\Desktop\Progetti da completare\multi_psu+tracking\isolamento_cc_cv.asc

Limiting rise time of source v3 to 5e-005
Limiting fall time of source v3 to 5e-005
Direct Newton iteration failed to find .op point.  (Use ".option noopiter" to skip.)
Starting Gmin stepping
Gmin = 10
Gmin = 1.07374
vernier = 0.5
vernier = 0.25
vernier = 0.125
vernier = 0.0625
Gmin = 1.08884
vernier = 0.03125
vernier = 0.015625
Gmin = 1.03122
vernier = 0.0078125
vernier = 0.0104167
vernier = 0.00520833
Gmin = 1.01988
vernier = 0.00260417
vernier = 0.00347222
Gmin = 1.01305
vernier = 0.00173611
vernier = 0.00231481
vernier = 0.00115741
Gmin = 1.01085
vernier = 0.00154321
vernier = 0.000771604
Gmin = 1.00871
vernier = 0.00102881
vernier = 0.000514403
Gmin = 1.00715
vernier = 0.00068587
vernier = 0.000514403
Gmin = 1.0059
vernier = 0.00068587
vernier = 0.000514402
Gmin = 0
Gmin stepping failed

Starting source stepping with srcstepmethod=0
Source Step = 3.0303%
Source Step = 21.2121%
vernier = 0.0625
Source Step = 20.9044%
Source Step = 21.0227%
Source Step = 21.1411%
Source Step = 21.2595%
Source Step = 21.3778%
vernier = 0.00585938
Source Step = 21.5258%
Source Step = 21.7034%
Source Step = 21.8809%
Source Step = 22.0585%
Source Step = 22.236%
vernier = 0.00878906
Source Step = 22.4491%
Source Step = 22.7154%
Source Step = 22.9818%
Source Step = 23.2481%
Source Step = 23.5144%
vernier = 0.0131836
Source Step = 23.8207%
Source Step = 24.2202%
Source Step = 24.6197%
Source Step = 25.0192%
Source Step = 25.4187%
vernier = 0.0197754
Source Step = 25.8582%
Source Step = 26.4574%
Source Step = 27.0567%
Source Step = 27.656%
Source Step = 28.2552%
vernier = 0.0296631
Source Step = 28.8844%
Source Step = 29.7833%
Source Step = 30.6822%
Source Step = 31.5811%
Source Step = 32.48%
Source Step = 33.3788%
vernier = 0.0444946
Source Step = 34.7272%
Source Step = 36.0755%
Source Step = 37.4238%
Source Step = 38.7721%
Source Step = 40.1204%
vernier = 0.0667419
Source Step = 42.0755%
Source Step = 44.098%
Source Step = 46.1205%
Source Step = 48.143%
Source Step = 50.1654%
vernier = 0.100113
Source Step = 52.9969%
Source Step = 56.0306%
Source Step = 59.0644%
Source Step = 62.0981%
Source Step = 65.1318%
vernier = 0.150169
Source Step = 69.2273%
Source Step = 73.7779%
Source Step = 78.3285%
Source Step = 80.035%
Source Step = 81.1726%
Source Step = 82.3103%
Source Step = 83.4479%
Source Step = 84.5856%
vernier = 0.0563135
Source Step = 86.0645%
Source Step = 87.771%
Source Step = 89.4775%
Source Step = 91.1839%
Source Step = 92.8904%
vernier = 0.0844703
Source Step = 95.0235%
Source Step = 97.5832%
Source Step = 100%
Source stepping succeeded in finding the operating point.


Date: Thu May 04 09:24:33 2023
Total elapsed time: 4.986 seconds.

tnom = 27
temp = 27
method = modified trap
totiter = 44017
traniter = 34947
tranpoints = 10567
accept = 7250
rejected = 3317
matrix size = 113
fillins = 156
solver = Normal
Thread vector: 47.0/29.5[8] 21.8/8.8[8] 26.2/15.0[8] 0.8/10.3[1]  2592/500
Matrix Compiler1: 13.59 KB object code size  7.5/3.7/[2.0]
Matrix Compiler2: 13.62 KB object code size  3.7/5.4/[1.0]

