LTspice 24.0.9 for Windows
Circuit: * C:\Users\gioel\Documents\LTspice\PSU.asc
Start Time: Thu Aug 22 16:25:17 2024
Warning: Multiple definitions of model "2scr375p" Type: BJT
Warning: Multiple definitions of model "bc857b" Type: BJT
Warning: Multiple definitions of model "bc847c" Type: BJT
Warning: Multiple definitions of model "bc847b" Type: BJT
solver = Normal
Maximum thread count: 8
tnom = 27
temp = 27
method = modified trap
Early termination of direct N-R iteration.
Direct Newton iteration failed to find .op point.  (Use ".option noopiter" to skip.)
Starting Gmin stepping
Gmin = 10
Gmin = 1.07374
Gmin = 0.115292
Gmin = 0.0123794
Gmin = 0.00132923
vernier = 0.5
vernier = 0.25
Gmin = 0.000455489
vernier = 0.125
vernier = 0.166667
Gmin = 0.000345519
vernier = 0.222222
vernier = 0.296296
Gmin = 0.000205762
vernier = 0.395061
Gmin = 8.98812e-05
vernier = 0.526748
vernier = 0.702331
Gmin = 2.39688e-05
vernier = 0.936441
vernier = 1
Gmin = 3.34082e-06
Gmin = 3.58718e-07
Gmin = 3.8517e-08
Gmin = 4.13573e-09
Gmin = 4.44071e-10
Gmin = 4.76818e-11
Gmin = 5.11979e-12
Gmin = 5.49733e-13
Gmin = 0
Gmin stepping succeeded in finding the operating point.

Total elapsed time: 0.892 seconds.

