Circuit: * C:\Users\gioel\Desktop\Progetti da completare\multi_psu+tracking\simulazioni spice\317_PWM\Draft1.asc

Instance "m:u3:6": Length shorter than recommended for a level 2 MOSFET.
Instance "m:u3:5": Length shorter than recommended for a level 2 MOSFET.
Instance "m:u3:4": Length shorter than recommended for a level 2 MOSFET.
Instance "m:u3:3": Length shorter than recommended for a level 2 MOSFET.
Instance "m:u3:2": Length shorter than recommended for a level 2 MOSFET.
Instance "m:u3:1": Length shorter than recommended for a level 2 MOSFET.
Instance "m:u2:6": Length shorter than recommended for a level 2 MOSFET.
Instance "m:u2:5": Length shorter than recommended for a level 2 MOSFET.
Instance "m:u2:4": Length shorter than recommended for a level 2 MOSFET.
Instance "m:u2:3": Length shorter than recommended for a level 2 MOSFET.
Instance "m:u2:2": Length shorter than recommended for a level 2 MOSFET.
Instance "m:u2:1": Length shorter than recommended for a level 2 MOSFET.
Instance "m:u4:6": Length shorter than recommended for a level 2 MOSFET.
Instance "m:u4:5": Length shorter than recommended for a level 2 MOSFET.
Instance "m:u4:4": Length shorter than recommended for a level 2 MOSFET.
Instance "m:u4:3": Length shorter than recommended for a level 2 MOSFET.
Instance "m:u4:2": Length shorter than recommended for a level 2 MOSFET.
Instance "m:u4:1": Length shorter than recommended for a level 2 MOSFET.
Direct Newton iteration failed to find .op point.  (Use ".option noopiter" to skip.)
Starting Gmin stepping
Gmin = 10
Gmin = 1.07374
Gmin = 0.115292
Gmin = 0.0123794
Gmin = 0.00132923
vernier = 0.5
vernier = 0.25
vernier = 0.125
vernier = 0.0625
Gmin = 0.00100083
vernier = 0.03125
vernier = 0.015625
vernier = 0.0078125
vernier = 0.00390625
vernier = 0.00195313
Gmin = 0.00100083
vernier = 0.000976563
vernier = 0.000488281
Gmin = 0
Gmin stepping failed

Starting source stepping with srcstepmethod=0
Source Step = 3.0303%
vernier = 0.25
Source Step = 1.70455%
Source Step = 3.59848%
Source Step = 5.49242%
Source Step = 7.38636%
Source Step = 9.2803%
vernier = 0.09375
Source Step = 11.9318%
Source Step = 14.7727%
Source Step = 17.6136%
Source Step = 20.4545%
Source Step = 23.2955%
vernier = 0.140625
Source Step = 24.1744%
Source Step = 24.2409%
Source Step = 24.3075%
Source Step = 24.3741%
Source Step = 24.4407%
vernier = 0.0032959
Source Step = 24.5106%
Source Step = 24.6105%
Source Step = 24.7104%
Source Step = 24.8102%
Source Step = 24.9101%
Source Step = 25.01%
vernier = 0.00494385
Source Step = 25.1598%
Source Step = 25.3096%
Source Step = 25.4594%
Source Step = 25.6092%
Source Step = 25.7591%
vernier = 0.00741577
Source Step = 25.9763%
Source Step = 26.201%
Source Step = 26.4257%
Source Step = 26.6504%
Source Step = 26.8752%
vernier = 0.0111237
Source Step = 27.1898%
Source Step = 27.5269%
Source Step = 27.8639%
Source Step = 28.201%
Source Step = 28.5381%
vernier = 0.0166855
Source Step = 28.9932%
Source Step = 29.4988%
Source Step = 30.0044%
Source Step = 30.51%
Source Step = 31.0156%
vernier = 0.0250282
Source Step = 31.6729%
Source Step = 32.4314%
Source Step = 33.1898%
Source Step = 33.9482%
Source Step = 34.7067%
vernier = 0.0375423
Source Step = 35.6547%
Source Step = 36.7924%
Source Step = 37.93%
Source Step = 39.0676%
Source Step = 40.2053%
vernier = 0.0563135
Source Step = 41.5705%
Source Step = 43.2769%
Source Step = 44.9834%
Source Step = 46.6899%
Source Step = 48.3964%
vernier = 0.0844703
Source Step = 50.3588%
Source Step = 52.9185%
Source Step = 55.4782%
Source Step = 58.0379%
Source Step = 60.5976%
vernier = 0.126705
Source Step = 63.4133%
Source Step = 67.2528%
Source Step = 71.0924%
Source Step = 74.932%
Source Step = 78.7715%
Source Step = 80.4993%
Source Step = 81.4592%
Source Step = 82.4191%
Source Step = 83.379%
Source Step = 84.3389%
vernier = 0.0475145
Source Step = 85.5387%
Source Step = 86.9786%
Source Step = 88.4184%
Source Step = 89.8582%
Source Step = 90.6052%
Source Step = 90.6951%
Source Step = 90.7851%
Source Step = 90.8751%
Source Step = 90.9651%
Source Step = 91.0551%
Source Step = 91.1451%
Source Step = 91.2351%
Source Step = 91.3251%
Source Step = 91.4151%
Source Step = 91.5051%
Source Step = 91.595%
Source Step = 91.685%
Source Step = 91.775%
Source Step = 91.865%
Source Step = 91.955%
Source Step = 92.045%
Source Step = 92.135%
Source Step = 92.225%
Source Step = 92.315%
Source Step = 92.405%
Source Step = 92.4949%
Source Step = 92.5849%
Source Step = 92.6749%
Source Step = 92.7649%
Source Step = 92.8549%
Source Step = 92.9449%
Source Step = 93.0349%
Source Step = 93.1249%
Source Step = 93.2149%
Source Step = 93.3048%
Source Step = 93.3948%
Source Step = 93.4848%
Source Step = 93.5748%
Source Step = 93.6648%
Source Step = 93.7548%
Source Step = 93.8448%
Source Step = 93.9348%
Source Step = 94.0248%
Source Step = 94.1148%
Source Step = 94.2047%
Source Step = 94.2947%
Source Step = 94.3847%
Source Step = 94.4747%
Source Step = 94.5647%
Source Step = 94.6547%
Source Step = 94.7447%
Source Step = 94.8347%
Source Step = 94.9247%
Source Step = 95.0147%
Source Step = 95.1046%
Source Step = 95.1946%
Source Step = 95.2846%
Source Step = 95.3746%
Source Step = 95.4646%
Source Step = 95.5546%
Source Step = 95.6446%
Source Step = 95.7346%
Source Step = 95.8246%
Source Step = 95.9145%
Source Step = 96.0045%
Source Step = 96.0945%
Source Step = 96.1845%
Source Step = 96.2745%
Source Step = 96.3645%
Source Step = 96.4545%
Source Step = 96.5445%
Source Step = 96.6345%
Source Step = 96.7245%
Source Step = 96.8144%
Source Step = 96.9044%
Source Step = 96.9944%
Source Step = 97.0844%
Source Step = 97.1744%
Source Step = 97.2644%
Source Step = 97.3544%
Source Step = 97.4444%
Source Step = 97.5344%
Source Step = 97.6244%
Source Step = 97.7143%
Source Step = 97.8043%
Source Step = 97.8943%
Source Step = 97.9843%
Source Step = 98.0743%
Source Step = 98.1643%
Source Step = 98.2543%
Source Step = 98.3443%
Source Step = 98.4343%
Source Step = 98.5242%
Source Step = 98.6142%
Source Step = 98.7042%
Source Step = 98.7942%
Source Step = 98.8842%
Source Step = 98.9742%
Source Step = 99.0642%
Source Step = 99.1542%
Source Step = 99.2442%
Source Step = 99.3342%
Source Step = 99.4241%
Source Step = 99.5141%
Source Step = 99.6041%
Source Step = 99.6941%
Source Step = 99.7841%
Source Step = 99.8741%
Source Step = 99.9641%
Source Step = 100%
Source Step = 100%
Source Step = 100%
Source Step = 100%
Source Step = 100%
Source Step = 100%
Source Step = 100%
Source Step = 100%
Source Step = 100%
Source Step = 100%
Source Step = 100%
Source Step = 100%
Source Step = 100%
Source Step = 100%
Source Step = 100%
Source Step = 100%
Source Step = 100%
Source Step = 100%
Source Step = 100%
Source Step = 100%
Source Step = 100%
Source Step = 100%
Source Step = 100%
Source Step = 100%
Source Step = 100%
Source Step = 100%
Source Step = 100%
Source Step = 100%
Source Step = 100%
Source Step = 100%
Source Step = 100%
Source Step = 100%
Source Step = 100%
Source Step = 100%
Source Step = 100%
Source Step = 100%
Source Step = 100%
Source Step = 100%
Source Step = 100%
Source Step = 100%
Source Step = 100%
Source Step = 100%
Source Step = 100%
Source Step = 100%
Source Step = 100%
Source Step = 100%
Source Step = 100%
Source Step = 100%
Source Step = 100%
Source Step = 100%
Source Step = 100%
Source Step = 100%
Source Step = 100%
Source Step = 100%
Source Step = 100%
Source Step = 100%
Source Step = 100%
Source Step = 100%
Source Step = 100%
Source Step = 100%
Source Step = 100%
Source Step = 100%
Source Step = 100%
Source Step = 100%
Source Step = 100%
Source Step = 100%
Source Step = 100%
Source Step = 100%
Source Step = 100%
Source Step = 100%
Source Step = 100%
Source Step = 100%
Source Step = 100%
Source Step = 100%
Source Step = 100%
Source Step = 100%
Source Step = 100%
Source Step = 100%
Source Step = 100%
Source Step = 100%
Source Step = 100%
Source Step = 100%
Source Step = 100%
Source Step = 100%
Source Step = 100%
Source Step = 100%
Source Step = 100%
Source Step = 100%
Source Step = 100%
Source Step = 100%
Source Step = 100%
Source Step = 100%
Source Step = 100%
Source Step = 100%
Source Step = 100%
Source Step = 100%
Source Step = 100%
Source Step = 100%
Source Step = 100%
Source Step = 100%
Source Step = 100%
Source Step = 100%
Source Step = 100%
Source Step = 100%
Source Step = 100%
Source Step = 100%
Source Step = 100%
Source Step = 100%
Source Step = 100%
Source Step = 100%
Source Step = 100%
Source Step = 100%
Source Step = 100%
Source Step = 100%
Source Step = 100%
Source Step = 100%
Source Step = 100%
Source Step = 100%
Source Step = 100%
Source Step = 100%
Source Step = 100%
Source Step = 100%
Source Step = 100%
Source Step = 100%
Source Step = 100%
Source Step = 100%
Source Step = 100%
Source Step = 100%
Source Step = 100%
Source Step = 100%
Source Step = 100%
Source Step = 100%
Source Step = 100%
Source Step = 100%
Source Step = 100%
Source Step = 100%
Source Step = 100%
Source Step = 100%
Source Step = 100%
Source Step = 100%
Source Step = 100%
Source Step = 100%
Source Step = 100%
Source Step = 100%
Source Step = 100%
Source Step = 100%
Source Step = 100%
Source Step = 100%
Source Step = 100%
Source Step = 100%
Source Step = 100%
Source Step = 100%
Source Step = 100%
Source Step = 100%
Source Step = 100%
Source Step = 100%
Source Step = 100%
Source Step = 100%
Source Step = 100%
Source Step = 100%
Source Step = 100%
Source Step = 100%
Source Step = 100%
Source Step = 100%
Source Step = 100%
Source Step = 100%
Source Step = 100%
Source Step = 100%
Source Step = 100%
Source Step = 100%
Source Step = 100%
Source Step = 100%
Source Step = 100%
Source Step = 100%
Source Step = 100%
Source Step = 100%
Source Step = 100%
Source Step = 100%
Source Step = 100%
Source Step = 100%
Source Step = 100%
Source Step = 100%
Source Step = 100%
Source Step = 100%
Source Step = 100%
Source Step = 100%
Source Step = 100%
Source Step = 100%
Source Step = 100%
Source Step = 100%
Source Step = 100%
Source Step = 100%
Source Step = 100%
Source Step = 100%
Source Step = 100%
Source Step = 100%
Source Step = 100%
Source Step = 100%
Source Step = 100%
Source Step = 100%
Source Step = 100%
Source Step = 100%
Source Step = 100%
Source Step = 100%
Source Step = 100%
Source Step = 100%
Source Step = 100%
Source Step = 100%
Source Step = 100%
Source Step = 100%
Source Step = 100%
Source Step = 100%
Source Step = 100%
Source Step = 100%
Source Step = 100%
Source Step = 100%
Source Step = 100%
Source Step = 100%
Source Step = 100%
Source Step = 100%
Source Step = 100%
Source Step = 100%
Source Step = 100%
Source Step = 100%
Source Step = 100%
Source Step = 100%
Source Step = 100%
Source Step = 100%
Source Step = 100%
Source Step = 100%
Source Step = 100%
Source Step = 100%
Source Step = 100%
Source Step = 100%
Source Step = 100%
Source Step = 100%
Source Step = 100%
Source Step = 100%
Source Step = 100%
Source Step = 100%
Source Step = 100%
Source Step = 100%
Source Step = 100%
Source Step = 100%
Source Step = 100%
Source Step = 100%
Source Step = 100%
Source Step = 100%
Source Step = 100%
Source Step = 100%
Source Step = 100%
Source Step = 100%
Source Step = 100%
Source Step = 100%
Source Step = 100%
Source Step = 100%
Source Step = 100%
Source Step = 100%
Source Step = 100%
Source Step = 100%
Source Step = 100%
Source Step = 100%
Source Step = 100%
Source Step = 100%
Source Step = 100%
Source Step = 100%
Source Step = 100%
Source Step = 100%
Source Step = 100%
Source Step = 100%
Source Step = 100%
Source Step = 100%
Source Step = 100%
Source Step = 100%
Source Step = 100%
Source Step = 100%
Source Step = 100%
Source Step = 100%
Source Step = 100%
Source Step = 100%
Source Step = 100%
Source Step = 100%
Source Step = 100%
Source Step = 100%
Source Step = 100%
Source Step = 100%
Source Step = 100%
Source Step = 100%
Source Step = 100%
Source Step = 100%
Source Step = 100%
Source Step = 100%
Source Step = 100%
Source Step = 100%
Source Step = 100%
Source Step = 100%
Source Step = 100%
Source Step = 100%
Source Step = 100%
Source Step = 100%
Source Step = 100%
Source Step = 100%
Source Step = 100%
Source Step = 100%
Source Step = 100%
Source Step = 100%
Source Step = 100%
Source Step = 100%
Source Step = 100%
Source Step = 100%
Source Step = 100%
Source Step = 100%
Source Step = 100%
Source Step = 100%
Source Step = 100%
Source Step = 100%
Source Step = 100%
Source Step = 100%
Source Step = 100%
Source Step = 100%
Trouble finding operating point....skipping operating point for Transient analysis.
