Circuit: * C:\Users\gioel\Desktop\Progetti da completare\multi_psu+tracking\simulazioni spice\317_PWM\Draft4.asc

Direct Newton iteration for .op point succeeded.

Date: Wed Oct 11 22:07:25 2023
Total elapsed time: 0.039 seconds.

tnom = 27
temp = 27
method = modified trap
totiter = 2165
traniter = 2162
tranpoints = 1082
accept = 1075
rejected = 7
matrix size = 4
fillins = 0
solver = Normal
Matrix Compiler1: 100 bytes object code size  0.1/0.0/[0.0]
Matrix Compiler2: off  [0.0]/0.1/0.1

