Circuit: * C:\Users\gioel\Desktop\Progetti da completare\multi_psu+tracking\simulazioni spice\317_PWM\Draft2.asc

Direct Newton iteration for .op point succeeded.

Date: Wed May 17 11:51:06 2023
Total elapsed time: 0.187 seconds.

tnom = 27
temp = 27
method = modified trap
totiter = 2103
traniter = 2082
tranpoints = 1042
accept = 1042
rejected = 0
matrix size = 6
fillins = 0
solver = Normal
Matrix Compiler1: 200 bytes object code size  0.1/0.1/[0.1]
Matrix Compiler2: 394 bytes object code size  0.1/0.1/[0.1]

