Circuit: * C:\Users\gioel\Desktop\Progetti da completare\multi_psu+tracking\simulazioni spice\317_PWM\Draft3.asc

Direct Newton iteration for .op point succeeded.

Date: Thu Jun 01 09:29:23 2023
Total elapsed time: 0.110 seconds.

tnom = 27
temp = 27
method = modified trap
totiter = 2098
traniter = 2088
tranpoints = 1045
accept = 1045
rejected = 0
matrix size = 11
fillins = 0
solver = Normal
Matrix Compiler1: 494 bytes object code size  0.2/0.1/[0.1]
Matrix Compiler2: 931 bytes object code size  0.1/0.2/[0.1]

